xflr5 v6.48

 Calculated polar for: FX 63-137 13.7% smoothed

 1 1 Reynolds number fixed          Mach number fixed         

 xtrf =   1.000 (top)        1.000 (bottom)
 Mach =   0.064     Re =     0.350 e 6     Ncrit =   9.000

alpha,CL,CD,CDp,Cm,Top Xtr,Bot Xtr,Cpmin,Chinge,XCp
-20.000,-0.4405, 0.22744, 0.22414,-0.0162,1.0000,0.0146,-1.4796, 0.0000, 0.1817
-19.500,-0.4250, 0.22197, 0.21869,-0.0190,1.0000,0.0152,-1.4716, 0.0000, 0.1740
-19.000,-0.4100, 0.21611, 0.21284,-0.0219,1.0000,0.0158,-1.5162, 0.0000, 0.1652
-18.500,-0.3974, 0.21006, 0.20681,-0.0254,1.0000,0.0160,-1.6293, 0.0000, 0.1550
-18.000,-0.3808, 0.20486, 0.20164,-0.0267,1.0000,0.0163,-1.5136, 0.0000, 0.1488
-17.500,-0.3658, 0.19972, 0.19652,-0.0287,1.0000,0.0169,-1.4711, 0.0000, 0.1406
-17.000,-0.3518, 0.19423, 0.19106,-0.0307,1.0000,0.0177,-1.4707, 0.0000, 0.1317
-16.500,-0.3395, 0.18820, 0.18505,-0.0332,1.0000,0.0185,-1.5499, 0.0000, 0.1214
-16.000,-0.3297, 0.18201, 0.17891,-0.0357,1.0000,0.0187,-1.6491, 0.0000, 0.1111
-15.500,-0.3148, 0.17695, 0.17387,-0.0362,1.0000,0.0191,-1.5354, 0.0000, 0.1042
-15.000,-0.3026, 0.17177, 0.16873,-0.0373,1.0000,0.0198,-1.4949, 0.0000, 0.0961
-14.500,-0.2923, 0.16622, 0.16322,-0.0385,1.0000,0.0208,-1.4997, 0.0000, 0.0879
 -8.000,-0.0352, 0.06529, 0.06256,-0.1198,0.9320,0.0418,-2.1857, 0.0000,-3.3172
 -7.500, 0.0214, 0.06016, 0.05737,-0.1280,0.9209,0.0441,-1.9314, 0.0000, 6.4867
 -6.500, 0.1233, 0.01899, 0.01334,-0.1921,0.8705,0.0298,-3.1361, 0.0000, 1.8486
 -6.000, 0.1870, 0.01639, 0.01023,-0.1946,0.8561,0.0306,-2.9057, 0.0000, 1.3157
 -5.500, 0.2480, 0.01476, 0.00831,-0.1960,0.8421,0.0329,-2.6113, 0.0000, 1.0580
 -5.000, 0.3080, 0.01362, 0.00705,-0.1971,0.8284,0.0356,-2.2934, 0.0000, 0.9028
 -4.500, 0.3700, 0.01263, 0.00601,-0.1987,0.8150,0.0403,-2.0113, 0.0000, 0.7968
 -4.000, 0.4349, 0.01175, 0.00509,-0.2011,0.8019,0.0492,-1.7257, 0.0000, 0.7196
 -3.500, 0.5033, 0.01079, 0.00429,-0.2044,0.7891,0.1064,-1.4450, 0.0000, 0.6614
 -3.000, 0.5743, 0.00977, 0.00401,-0.2088,0.7764,0.3696,-1.1496, 0.0000, 0.6174
 -2.500, 0.6337, 0.00983, 0.00405,-0.2093,0.7634,0.4398,-0.8789, 0.0000, 0.5829
 -2.000, 0.6916, 0.00998, 0.00416,-0.2093,0.7503,0.4841,-0.8909, 0.0000, 0.5543
 -1.500, 0.7492, 0.01012, 0.00419,-0.2094,0.7372,0.5107,-0.9345, 0.0000, 0.5302
 -1.000, 0.8060, 0.01029, 0.00431,-0.2092,0.7238,0.5397,-0.9799, 0.0000, 0.5094
 -0.500, 0.8625, 0.01040, 0.00438,-0.2091,0.7102,0.5586,-1.0276, 0.0000, 0.4915
  0.000, 0.9190, 0.01052, 0.00444,-0.2090,0.6962,0.5762,-1.0779, 0.0000, 0.4757
  0.500, 0.9753, 0.01065, 0.00453,-0.2089,0.6818,0.5940,-1.1317, 0.0000, 0.4617
  1.000, 1.0308, 0.01079, 0.00465,-0.2086,0.6669,0.6111,-1.1885, 0.0000, 0.4492
  1.500, 1.0859, 0.01095, 0.00481,-0.2083,0.6517,0.6288,-1.2494, 0.0000, 0.4379
  2.000, 1.1408, 0.01116, 0.00498,-0.2079,0.6360,0.6480,-1.3137, 0.0000, 0.4276
  2.500, 1.1944, 0.01136, 0.00522,-0.2073,0.6192,0.6673,-1.3803, 0.0000, 0.4182
  3.000, 1.2473, 0.01160, 0.00550,-0.2066,0.6016,0.6877,-1.4510, 0.0000, 0.4096
  3.500, 1.2997, 0.01188, 0.00580,-0.2058,0.5839,0.7091,-1.5838, 0.0000, 0.4015
  4.000, 1.3509, 0.01219, 0.00615,-0.2048,0.5648,0.7324,-1.7203, 0.0000, 0.3941
  4.500, 1.3989, 0.01255, 0.00652,-0.2032,0.5403,0.7562,-1.8618, 0.0000, 0.3869
  5.000, 1.4446, 0.01296, 0.00695,-0.2011,0.5113,0.7824,-2.0049, 0.0000, 0.3801
  5.500, 1.4895, 0.01345, 0.00746,-0.1990,0.4843,0.8121,-2.1555, 0.0000, 0.3737
  6.000, 1.5320, 0.01398, 0.00804,-0.1964,0.4583,0.8458,-2.3052, 0.0000, 0.3675
  6.500, 1.5690, 0.01451, 0.00863,-0.1928,0.4318,0.8956,-2.4540, 0.0000, 0.3614
  7.000, 1.6014, 0.01513, 0.00924,-0.1885,0.4035,1.0000,-2.5998, 0.0000, 0.3554
  7.500, 1.6374, 0.01616, 0.01017,-0.1852,0.3731,1.0000,-2.7543, 0.0000, 0.3500
  8.000, 1.6678, 0.01737, 0.01128,-0.1811,0.3412,1.0000,-2.9062, 0.0000, 0.3445
  8.500, 1.6925, 0.01888, 0.01268,-0.1762,0.3072,1.0000,-3.0516, 0.0000, 0.3392
  9.000, 1.7135, 0.02070, 0.01440,-0.1710,0.2714,1.0000,-3.1911, 0.0000, 0.3340
  9.500, 1.7270, 0.02314, 0.01668,-0.1653,0.2317,1.0000,-3.3195, 0.0000, 0.3290
 10.000, 1.7332, 0.02635, 0.01970,-0.1594,0.1866,1.0000,-3.4347, 0.0000, 0.3243
 10.500, 1.7331, 0.03047, 0.02361,-0.1537,0.1481,1.0000,-3.5338, 0.0000, 0.3200
 11.000, 1.7352, 0.03484, 0.02792,-0.1491,0.1264,1.0000,-3.6361, 0.0000, 0.3162
 11.500, 1.7403, 0.03931, 0.03242,-0.1454,0.1142,1.0000,-3.7494, 0.0000, 0.3128
 12.000, 1.7443, 0.04418, 0.03737,-0.1422,0.1061,1.0000,-3.8594, 0.0000, 0.3098
 12.500, 1.7529, 0.04887, 0.04223,-0.1398,0.1002,1.0000,-3.9802, 0.0000, 0.3069
 13.000, 1.7521, 0.05486, 0.04827,-0.1375,0.0952,1.0000,-4.0824, 0.0000, 0.3045
 13.500, 1.7631, 0.05974, 0.05339,-0.1361,0.0912,1.0000,-4.2624, 0.0000, 0.3020
 14.000, 1.7681, 0.06552, 0.05928,-0.1348,0.0876,1.0000,-4.5043, 0.0000, 0.2999
 14.500, 1.7744, 0.07127, 0.06519,-0.1337,0.0843,1.0000,-4.7547, 0.0000, 0.2979
 15.000, 1.7839, 0.07680, 0.07093,-0.1331,0.0813,1.0000,-5.0347, 0.0000, 0.2959
 15.500, 1.7919, 0.08253, 0.07676,-0.1326,0.0784,1.0000,-5.3193, 0.0000, 0.2941
 16.000, 1.8026, 0.08782, 0.08220,-0.1321,0.0757,1.0000,-5.6218, 0.0000, 0.2921
 16.500, 1.8101, 0.09389, 0.08853,-0.1325,0.0729,1.0000,-5.9124, 0.0000, 0.2907
 17.000, 1.8157, 0.10017, 0.09489,-0.1333,0.0695,1.0000,-6.2178, 0.0000, 0.2896
 17.500, 1.8165, 0.10751, 0.10250,-0.1350,0.0659,1.0000,-6.4898, 0.0000, 0.2892
 18.000, 1.8177, 0.11487, 0.11003,-0.1372,0.0627,1.0000,-6.7685, 0.0000, 0.2890
 18.500, 1.8234, 0.12108, 0.11637,-0.1388,0.0600,1.0000,-7.0761, 0.0000, 0.2882
 19.000, 1.8233, 0.12877, 0.12437,-0.1419,0.0575,1.0000,-7.3397, 0.0000, 0.2885
 19.500, 1.8250, 0.13603, 0.13177,-0.1451,0.0551,1.0000,-7.6344, 0.0000, 0.2887
 20.000, 1.8259, 0.14328, 0.13923,-0.1485,0.0526,1.0000,-7.9177, 0.0000, 0.2890


